
---------- Begin Simulation Statistics ----------
simSeconds                                   0.000463                       # Number of seconds simulated (Second)
simTicks                                    463199500                       # Number of ticks simulated (Tick)
finalTick                                   463199500                       # Number of ticks from beginning of simulation (restored from checkpoints and never reset) (Tick)
simFreq                                  1000000000000                       # The number of ticks per simulated second ((Tick/Second))
hostSeconds                                     37.28                       # Real time elapsed on the host (Second)
hostTickRate                                 12423330                       # The number of ticks simulated per host second (ticks/s) ((Tick/Second))
hostMemory                                    1174132                       # Number of bytes of host memory used (Byte)
simInsts                                       253766                       # Number of instructions simulated (Count)
simOps                                         375006                       # Number of ops (including micro ops) simulated (Count)
hostInstRate                                     6806                       # Simulator instruction rate (inst/s) ((Count/Second))
hostOpRate                                      10058                       # Simulator op (including micro ops) rate (op/s) ((Count/Second))
system.clk_domain.clock                          1000                       # Clock period in ticks (Tick)
system.cpu0.numCycles                          919331                       # Number of cpu cycles simulated (Cycle)
system.cpu0.cpi                              6.540023                       # CPI: cycles per instruction (core level) ((Cycle/Count))
system.cpu0.ipc                              0.152905                       # IPC: instructions per cycle (core level) ((Count/Cycle))
system.cpu0.numWorkItemsStarted                     0                       # Number of work items this cpu started (Count)
system.cpu0.numWorkItemsCompleted                   0                       # Number of work items this cpu completed (Count)
system.cpu0.instsAdded                         320824                       # Number of instructions added to the IQ (excludes non-spec) (Count)
system.cpu0.nonSpecInstsAdded                    1698                       # Number of non-speculative instructions added to the IQ (Count)
system.cpu0.instsIssued                        524561                       # Number of instructions issued (Count)
system.cpu0.squashedInstsIssued                   298                       # Number of squashed instructions issued (Count)
system.cpu0.squashedInstsExamined               79131                       # Number of squashed instructions iterated over during squash; mainly for profiling (Count)
system.cpu0.squashedOperandsExamined           130414                       # Number of squashed operands that are examined and possibly removed from graph (Count)
system.cpu0.squashedNonSpecRemoved                729                       # Number of squashed non-spec instructions that were removed (Count)
system.cpu0.numIssuedDist::samples             610231                       # Number of insts issued each cycle (Count)
system.cpu0.numIssuedDist::mean              0.859611                       # Number of insts issued each cycle (Count)
system.cpu0.numIssuedDist::stdev             1.717221                       # Number of insts issued each cycle (Count)
system.cpu0.numIssuedDist::underflows               0      0.00%      0.00% # Number of insts issued each cycle (Count)
system.cpu0.numIssuedDist::0                   458929     75.21%     75.21% # Number of insts issued each cycle (Count)
system.cpu0.numIssuedDist::1                    25684      4.21%     79.41% # Number of insts issued each cycle (Count)
system.cpu0.numIssuedDist::2                    20229      3.31%     82.73% # Number of insts issued each cycle (Count)
system.cpu0.numIssuedDist::3                    18924      3.10%     85.83% # Number of insts issued each cycle (Count)
system.cpu0.numIssuedDist::4                    59844      9.81%     95.64% # Number of insts issued each cycle (Count)
system.cpu0.numIssuedDist::5                     9409      1.54%     97.18% # Number of insts issued each cycle (Count)
system.cpu0.numIssuedDist::6                     8115      1.33%     98.51% # Number of insts issued each cycle (Count)
system.cpu0.numIssuedDist::7                     6240      1.02%     99.53% # Number of insts issued each cycle (Count)
system.cpu0.numIssuedDist::8                     2857      0.47%    100.00% # Number of insts issued each cycle (Count)
system.cpu0.numIssuedDist::overflows                0      0.00%    100.00% # Number of insts issued each cycle (Count)
system.cpu0.numIssuedDist::min_value                0                       # Number of insts issued each cycle (Count)
system.cpu0.numIssuedDist::max_value                8                       # Number of insts issued each cycle (Count)
system.cpu0.numIssuedDist::total               610231                       # Number of insts issued each cycle (Count)
system.cpu0.statFuBusy::No_OpClass                  0      0.00%      0.00% # attempts to use FU when none available (Count)
system.cpu0.statFuBusy::IntAlu                   3280      6.32%      6.32% # attempts to use FU when none available (Count)
system.cpu0.statFuBusy::IntMult                     0      0.00%      6.32% # attempts to use FU when none available (Count)
system.cpu0.statFuBusy::IntDiv                      0      0.00%      6.32% # attempts to use FU when none available (Count)
system.cpu0.statFuBusy::FloatAdd                    0      0.00%      6.32% # attempts to use FU when none available (Count)
system.cpu0.statFuBusy::FloatCmp                    0      0.00%      6.32% # attempts to use FU when none available (Count)
system.cpu0.statFuBusy::FloatCvt                    0      0.00%      6.32% # attempts to use FU when none available (Count)
system.cpu0.statFuBusy::FloatMult                   0      0.00%      6.32% # attempts to use FU when none available (Count)
system.cpu0.statFuBusy::FloatMultAcc                0      0.00%      6.32% # attempts to use FU when none available (Count)
system.cpu0.statFuBusy::FloatDiv                    0      0.00%      6.32% # attempts to use FU when none available (Count)
system.cpu0.statFuBusy::FloatMisc                   0      0.00%      6.32% # attempts to use FU when none available (Count)
system.cpu0.statFuBusy::FloatSqrt                   0      0.00%      6.32% # attempts to use FU when none available (Count)
system.cpu0.statFuBusy::SimdAdd                     0      0.00%      6.32% # attempts to use FU when none available (Count)
system.cpu0.statFuBusy::SimdAddAcc                  0      0.00%      6.32% # attempts to use FU when none available (Count)
system.cpu0.statFuBusy::SimdAlu                    86      0.17%      6.49% # attempts to use FU when none available (Count)
system.cpu0.statFuBusy::SimdCmp                     0      0.00%      6.49% # attempts to use FU when none available (Count)
system.cpu0.statFuBusy::SimdCvt                     3      0.01%      6.49% # attempts to use FU when none available (Count)
system.cpu0.statFuBusy::SimdMisc                    0      0.00%      6.49% # attempts to use FU when none available (Count)
system.cpu0.statFuBusy::SimdMult                    0      0.00%      6.49% # attempts to use FU when none available (Count)
system.cpu0.statFuBusy::SimdMultAcc                 0      0.00%      6.49% # attempts to use FU when none available (Count)
system.cpu0.statFuBusy::SimdMatMultAcc              0      0.00%      6.49% # attempts to use FU when none available (Count)
system.cpu0.statFuBusy::SimdShift                   0      0.00%      6.49% # attempts to use FU when none available (Count)
system.cpu0.statFuBusy::SimdShiftAcc                0      0.00%      6.49% # attempts to use FU when none available (Count)
system.cpu0.statFuBusy::SimdDiv                     0      0.00%      6.49% # attempts to use FU when none available (Count)
system.cpu0.statFuBusy::SimdSqrt                    0      0.00%      6.49% # attempts to use FU when none available (Count)
system.cpu0.statFuBusy::SimdFloatAdd                0      0.00%      6.49% # attempts to use FU when none available (Count)
system.cpu0.statFuBusy::SimdFloatAlu                0      0.00%      6.49% # attempts to use FU when none available (Count)
system.cpu0.statFuBusy::SimdFloatCmp                0      0.00%      6.49% # attempts to use FU when none available (Count)
system.cpu0.statFuBusy::SimdFloatCvt                0      0.00%      6.49% # attempts to use FU when none available (Count)
system.cpu0.statFuBusy::SimdFloatDiv                0      0.00%      6.49% # attempts to use FU when none available (Count)
system.cpu0.statFuBusy::SimdFloatMisc               0      0.00%      6.49% # attempts to use FU when none available (Count)
system.cpu0.statFuBusy::SimdFloatMult               0      0.00%      6.49% # attempts to use FU when none available (Count)
system.cpu0.statFuBusy::SimdFloatMultAcc            0      0.00%      6.49% # attempts to use FU when none available (Count)
system.cpu0.statFuBusy::SimdFloatMatMultAcc            0      0.00%      6.49% # attempts to use FU when none available (Count)
system.cpu0.statFuBusy::SimdFloatSqrt               0      0.00%      6.49% # attempts to use FU when none available (Count)
system.cpu0.statFuBusy::SimdReduceAdd               0      0.00%      6.49% # attempts to use FU when none available (Count)
system.cpu0.statFuBusy::SimdReduceAlu               0      0.00%      6.49% # attempts to use FU when none available (Count)
system.cpu0.statFuBusy::SimdReduceCmp               0      0.00%      6.49% # attempts to use FU when none available (Count)
system.cpu0.statFuBusy::SimdFloatReduceAdd            0      0.00%      6.49% # attempts to use FU when none available (Count)
system.cpu0.statFuBusy::SimdFloatReduceCmp            0      0.00%      6.49% # attempts to use FU when none available (Count)
system.cpu0.statFuBusy::SimdAes                     0      0.00%      6.49% # attempts to use FU when none available (Count)
system.cpu0.statFuBusy::SimdAesMix                  0      0.00%      6.49% # attempts to use FU when none available (Count)
system.cpu0.statFuBusy::SimdSha1Hash                0      0.00%      6.49% # attempts to use FU when none available (Count)
system.cpu0.statFuBusy::SimdSha1Hash2               0      0.00%      6.49% # attempts to use FU when none available (Count)
system.cpu0.statFuBusy::SimdSha256Hash              0      0.00%      6.49% # attempts to use FU when none available (Count)
system.cpu0.statFuBusy::SimdSha256Hash2             0      0.00%      6.49% # attempts to use FU when none available (Count)
system.cpu0.statFuBusy::SimdShaSigma2               0      0.00%      6.49% # attempts to use FU when none available (Count)
system.cpu0.statFuBusy::SimdShaSigma3               0      0.00%      6.49% # attempts to use FU when none available (Count)
system.cpu0.statFuBusy::SimdPredAlu                 0      0.00%      6.49% # attempts to use FU when none available (Count)
system.cpu0.statFuBusy::Matrix                      0      0.00%      6.49% # attempts to use FU when none available (Count)
system.cpu0.statFuBusy::MatrixMov                   0      0.00%      6.49% # attempts to use FU when none available (Count)
system.cpu0.statFuBusy::MatrixOP                    0      0.00%      6.49% # attempts to use FU when none available (Count)
system.cpu0.statFuBusy::MemRead                 47497     91.55%     98.04% # attempts to use FU when none available (Count)
system.cpu0.statFuBusy::MemWrite                  792      1.53%     99.57% # attempts to use FU when none available (Count)
system.cpu0.statFuBusy::FloatMemRead              134      0.26%     99.83% # attempts to use FU when none available (Count)
system.cpu0.statFuBusy::FloatMemWrite              90      0.17%    100.00% # attempts to use FU when none available (Count)
system.cpu0.statFuBusy::IprAccess                   0      0.00%    100.00% # attempts to use FU when none available (Count)
system.cpu0.statFuBusy::InstPrefetch                0      0.00%    100.00% # attempts to use FU when none available (Count)
system.cpu0.statFuBusy::SimdUnitStrideLoad            0      0.00%    100.00% # attempts to use FU when none available (Count)
system.cpu0.statFuBusy::SimdUnitStrideStore            0      0.00%    100.00% # attempts to use FU when none available (Count)
system.cpu0.statFuBusy::SimdUnitStrideMaskLoad            0      0.00%    100.00% # attempts to use FU when none available (Count)
system.cpu0.statFuBusy::SimdUnitStrideMaskStore            0      0.00%    100.00% # attempts to use FU when none available (Count)
system.cpu0.statFuBusy::SimdStridedLoad             0      0.00%    100.00% # attempts to use FU when none available (Count)
system.cpu0.statFuBusy::SimdStridedStore            0      0.00%    100.00% # attempts to use FU when none available (Count)
system.cpu0.statFuBusy::SimdIndexedLoad             0      0.00%    100.00% # attempts to use FU when none available (Count)
system.cpu0.statFuBusy::SimdIndexedStore            0      0.00%    100.00% # attempts to use FU when none available (Count)
system.cpu0.statFuBusy::SimdWholeRegisterLoad            0      0.00%    100.00% # attempts to use FU when none available (Count)
system.cpu0.statFuBusy::SimdWholeRegisterStore            0      0.00%    100.00% # attempts to use FU when none available (Count)
system.cpu0.statFuBusy::SimdUnitStrideFaultOnlyFirstLoad            0      0.00%    100.00% # attempts to use FU when none available (Count)
system.cpu0.statFuBusy::SimdUnitStrideSegmentedLoad            0      0.00%    100.00% # attempts to use FU when none available (Count)
system.cpu0.statFuBusy::SimdUnitStrideSegmentedStore            0      0.00%    100.00% # attempts to use FU when none available (Count)
system.cpu0.statFuBusy::SimdExt                     0      0.00%    100.00% # attempts to use FU when none available (Count)
system.cpu0.statFuBusy::SimdFloatExt                0      0.00%    100.00% # attempts to use FU when none available (Count)
system.cpu0.statFuBusy::SimdConfig                  0      0.00%    100.00% # attempts to use FU when none available (Count)
system.cpu0.statIssuedInstType_0::No_OpClass         4300      0.82%      0.82% # Number of instructions issued per FU type, per thread (Count)
system.cpu0.statIssuedInstType_0::IntAlu       197110     37.58%     38.40% # Number of instructions issued per FU type, per thread (Count)
system.cpu0.statIssuedInstType_0::IntMult          209      0.04%     38.44% # Number of instructions issued per FU type, per thread (Count)
system.cpu0.statIssuedInstType_0::IntDiv           66      0.01%     38.45% # Number of instructions issued per FU type, per thread (Count)
system.cpu0.statIssuedInstType_0::FloatAdd         1143      0.22%     38.67% # Number of instructions issued per FU type, per thread (Count)
system.cpu0.statIssuedInstType_0::FloatCmp            0      0.00%     38.67% # Number of instructions issued per FU type, per thread (Count)
system.cpu0.statIssuedInstType_0::FloatCvt            0      0.00%     38.67% # Number of instructions issued per FU type, per thread (Count)
system.cpu0.statIssuedInstType_0::FloatMult            0      0.00%     38.67% # Number of instructions issued per FU type, per thread (Count)
system.cpu0.statIssuedInstType_0::FloatMultAcc            0      0.00%     38.67% # Number of instructions issued per FU type, per thread (Count)
system.cpu0.statIssuedInstType_0::FloatDiv            0      0.00%     38.67% # Number of instructions issued per FU type, per thread (Count)
system.cpu0.statIssuedInstType_0::FloatMisc            0      0.00%     38.67% # Number of instructions issued per FU type, per thread (Count)
system.cpu0.statIssuedInstType_0::FloatSqrt            0      0.00%     38.67% # Number of instructions issued per FU type, per thread (Count)
system.cpu0.statIssuedInstType_0::SimdAdd           32      0.01%     38.67% # Number of instructions issued per FU type, per thread (Count)
system.cpu0.statIssuedInstType_0::SimdAddAcc            0      0.00%     38.67% # Number of instructions issued per FU type, per thread (Count)
system.cpu0.statIssuedInstType_0::SimdAlu          910      0.17%     38.85% # Number of instructions issued per FU type, per thread (Count)
system.cpu0.statIssuedInstType_0::SimdCmp            0      0.00%     38.85% # Number of instructions issued per FU type, per thread (Count)
system.cpu0.statIssuedInstType_0::SimdCvt          322      0.06%     38.91% # Number of instructions issued per FU type, per thread (Count)
system.cpu0.statIssuedInstType_0::SimdMisc         1543      0.29%     39.20% # Number of instructions issued per FU type, per thread (Count)
system.cpu0.statIssuedInstType_0::SimdMult            0      0.00%     39.20% # Number of instructions issued per FU type, per thread (Count)
system.cpu0.statIssuedInstType_0::SimdMultAcc            0      0.00%     39.20% # Number of instructions issued per FU type, per thread (Count)
system.cpu0.statIssuedInstType_0::SimdMatMultAcc            0      0.00%     39.20% # Number of instructions issued per FU type, per thread (Count)
system.cpu0.statIssuedInstType_0::SimdShift            0      0.00%     39.20% # Number of instructions issued per FU type, per thread (Count)
system.cpu0.statIssuedInstType_0::SimdShiftAcc            0      0.00%     39.20% # Number of instructions issued per FU type, per thread (Count)
system.cpu0.statIssuedInstType_0::SimdDiv            0      0.00%     39.20% # Number of instructions issued per FU type, per thread (Count)
system.cpu0.statIssuedInstType_0::SimdSqrt            0      0.00%     39.20% # Number of instructions issued per FU type, per thread (Count)
system.cpu0.statIssuedInstType_0::SimdFloatAdd            0      0.00%     39.20% # Number of instructions issued per FU type, per thread (Count)
system.cpu0.statIssuedInstType_0::SimdFloatAlu            0      0.00%     39.20% # Number of instructions issued per FU type, per thread (Count)
system.cpu0.statIssuedInstType_0::SimdFloatCmp            0      0.00%     39.20% # Number of instructions issued per FU type, per thread (Count)
system.cpu0.statIssuedInstType_0::SimdFloatCvt           22      0.00%     39.21% # Number of instructions issued per FU type, per thread (Count)
system.cpu0.statIssuedInstType_0::SimdFloatDiv            8      0.00%     39.21% # Number of instructions issued per FU type, per thread (Count)
system.cpu0.statIssuedInstType_0::SimdFloatMisc            0      0.00%     39.21% # Number of instructions issued per FU type, per thread (Count)
system.cpu0.statIssuedInstType_0::SimdFloatMult            9      0.00%     39.21% # Number of instructions issued per FU type, per thread (Count)
system.cpu0.statIssuedInstType_0::SimdFloatMultAcc            0      0.00%     39.21% # Number of instructions issued per FU type, per thread (Count)
system.cpu0.statIssuedInstType_0::SimdFloatMatMultAcc            0      0.00%     39.21% # Number of instructions issued per FU type, per thread (Count)
system.cpu0.statIssuedInstType_0::SimdFloatSqrt            0      0.00%     39.21% # Number of instructions issued per FU type, per thread (Count)
system.cpu0.statIssuedInstType_0::SimdReduceAdd            0      0.00%     39.21% # Number of instructions issued per FU type, per thread (Count)
system.cpu0.statIssuedInstType_0::SimdReduceAlu            0      0.00%     39.21% # Number of instructions issued per FU type, per thread (Count)
system.cpu0.statIssuedInstType_0::SimdReduceCmp            0      0.00%     39.21% # Number of instructions issued per FU type, per thread (Count)
system.cpu0.statIssuedInstType_0::SimdFloatReduceAdd            0      0.00%     39.21% # Number of instructions issued per FU type, per thread (Count)
system.cpu0.statIssuedInstType_0::SimdFloatReduceCmp            0      0.00%     39.21% # Number of instructions issued per FU type, per thread (Count)
system.cpu0.statIssuedInstType_0::SimdAes            0      0.00%     39.21% # Number of instructions issued per FU type, per thread (Count)
system.cpu0.statIssuedInstType_0::SimdAesMix            0      0.00%     39.21% # Number of instructions issued per FU type, per thread (Count)
system.cpu0.statIssuedInstType_0::SimdSha1Hash            0      0.00%     39.21% # Number of instructions issued per FU type, per thread (Count)
system.cpu0.statIssuedInstType_0::SimdSha1Hash2            0      0.00%     39.21% # Number of instructions issued per FU type, per thread (Count)
system.cpu0.statIssuedInstType_0::SimdSha256Hash            0      0.00%     39.21% # Number of instructions issued per FU type, per thread (Count)
system.cpu0.statIssuedInstType_0::SimdSha256Hash2            0      0.00%     39.21% # Number of instructions issued per FU type, per thread (Count)
system.cpu0.statIssuedInstType_0::SimdShaSigma2            0      0.00%     39.21% # Number of instructions issued per FU type, per thread (Count)
system.cpu0.statIssuedInstType_0::SimdShaSigma3            0      0.00%     39.21% # Number of instructions issued per FU type, per thread (Count)
system.cpu0.statIssuedInstType_0::SimdPredAlu            0      0.00%     39.21% # Number of instructions issued per FU type, per thread (Count)
system.cpu0.statIssuedInstType_0::Matrix            0      0.00%     39.21% # Number of instructions issued per FU type, per thread (Count)
system.cpu0.statIssuedInstType_0::MatrixMov            0      0.00%     39.21% # Number of instructions issued per FU type, per thread (Count)
system.cpu0.statIssuedInstType_0::MatrixOP            0      0.00%     39.21% # Number of instructions issued per FU type, per thread (Count)
system.cpu0.statIssuedInstType_0::MemRead       297944     56.80%     96.01% # Number of instructions issued per FU type, per thread (Count)
system.cpu0.statIssuedInstType_0::MemWrite        18375      3.50%     99.51% # Number of instructions issued per FU type, per thread (Count)
system.cpu0.statIssuedInstType_0::FloatMemRead         1029      0.20%     99.71% # Number of instructions issued per FU type, per thread (Count)
system.cpu0.statIssuedInstType_0::FloatMemWrite         1539      0.29%    100.00% # Number of instructions issued per FU type, per thread (Count)
system.cpu0.statIssuedInstType_0::IprAccess            0      0.00%    100.00% # Number of instructions issued per FU type, per thread (Count)
system.cpu0.statIssuedInstType_0::InstPrefetch            0      0.00%    100.00% # Number of instructions issued per FU type, per thread (Count)
system.cpu0.statIssuedInstType_0::SimdUnitStrideLoad            0      0.00%    100.00% # Number of instructions issued per FU type, per thread (Count)
system.cpu0.statIssuedInstType_0::SimdUnitStrideStore            0      0.00%    100.00% # Number of instructions issued per FU type, per thread (Count)
system.cpu0.statIssuedInstType_0::SimdUnitStrideMaskLoad            0      0.00%    100.00% # Number of instructions issued per FU type, per thread (Count)
system.cpu0.statIssuedInstType_0::SimdUnitStrideMaskStore            0      0.00%    100.00% # Number of instructions issued per FU type, per thread (Count)
system.cpu0.statIssuedInstType_0::SimdStridedLoad            0      0.00%    100.00% # Number of instructions issued per FU type, per thread (Count)
system.cpu0.statIssuedInstType_0::SimdStridedStore            0      0.00%    100.00% # Number of instructions issued per FU type, per thread (Count)
system.cpu0.statIssuedInstType_0::SimdIndexedLoad            0      0.00%    100.00% # Number of instructions issued per FU type, per thread (Count)
system.cpu0.statIssuedInstType_0::SimdIndexedStore            0      0.00%    100.00% # Number of instructions issued per FU type, per thread (Count)
system.cpu0.statIssuedInstType_0::SimdWholeRegisterLoad            0      0.00%    100.00% # Number of instructions issued per FU type, per thread (Count)
system.cpu0.statIssuedInstType_0::SimdWholeRegisterStore            0      0.00%    100.00% # Number of instructions issued per FU type, per thread (Count)
system.cpu0.statIssuedInstType_0::SimdUnitStrideFaultOnlyFirstLoad            0      0.00%    100.00% # Number of instructions issued per FU type, per thread (Count)
system.cpu0.statIssuedInstType_0::SimdUnitStrideSegmentedLoad            0      0.00%    100.00% # Number of instructions issued per FU type, per thread (Count)
system.cpu0.statIssuedInstType_0::SimdUnitStrideSegmentedStore            0      0.00%    100.00% # Number of instructions issued per FU type, per thread (Count)
system.cpu0.statIssuedInstType_0::SimdExt            0      0.00%    100.00% # Number of instructions issued per FU type, per thread (Count)
system.cpu0.statIssuedInstType_0::SimdFloatExt            0      0.00%    100.00% # Number of instructions issued per FU type, per thread (Count)
system.cpu0.statIssuedInstType_0::SimdConfig            0      0.00%    100.00% # Number of instructions issued per FU type, per thread (Count)
system.cpu0.statIssuedInstType_0::total        524561                       # Number of instructions issued per FU type, per thread (Count)
system.cpu0.issueRate                        0.570590                       # Inst issue rate ((Count/Cycle))
system.cpu0.fuBusy                              51882                       # FU busy when requested (Count)
system.cpu0.fuBusyRate                       0.098906                       # FU busy rate (busy events/executed inst) ((Count/Count))
system.cpu0.intInstQueueReads                 1696691                       # Number of integer instruction queue reads (Count)
system.cpu0.intInstQueueWrites                 392924                       # Number of integer instruction queue writes (Count)
system.cpu0.intInstQueueWakeupAccesses         277379                       # Number of integer instruction queue wakeup accesses (Count)
system.cpu0.fpInstQueueReads                    14842                       # Number of floating instruction queue reads (Count)
system.cpu0.fpInstQueueWrites                    8844                       # Number of floating instruction queue writes (Count)
system.cpu0.fpInstQueueWakeupAccesses            7007                       # Number of floating instruction queue wakeup accesses (Count)
system.cpu0.vecInstQueueReads                       0                       # Number of vector instruction queue reads (Count)
system.cpu0.vecInstQueueWrites                      0                       # Number of vector instruction queue writes (Count)
system.cpu0.vecInstQueueWakeupAccesses              0                       # Number of vector instruction queue wakeup accesses (Count)
system.cpu0.intAluAccesses                     564580                       # Number of integer alu accesses (Count)
system.cpu0.fpAluAccesses                        7563                       # Number of floating point alu accesses (Count)
system.cpu0.vecAluAccesses                          0                       # Number of vector alu accesses (Count)
system.cpu0.numSquashedInsts                     3534                       # Number of squashed instructions skipped in execute (Count)
system.cpu0.numSwp                                  0                       # Number of swp insts executed (Count)
system.cpu0.timesIdled                           3181                       # Number of times that the entire CPU went into an idle state and unscheduled itself (Count)
system.cpu0.idleCycles                         309100                       # Total number of cycles that the CPU has spent unscheduled due to idling (Cycle)
system.cpu0.quiesceCycles                        7069                       # Total number of cycles that CPU has spent quiesced or waiting for an interrupt (Cycle)
system.cpu0.MemDepUnit__0.insertedLoads         83848                       # Number of loads inserted to the mem dependence unit. (Count)
system.cpu0.MemDepUnit__0.insertedStores        22151                       # Number of stores inserted to the mem dependence unit. (Count)
system.cpu0.MemDepUnit__0.conflictingLoads         6049                       # Number of conflicting loads. (Count)
system.cpu0.MemDepUnit__0.conflictingStores         3391                       # Number of conflicting stores. (Count)
system.cpu0.MemDepUnit__1.insertedLoads             0                       # Number of loads inserted to the mem dependence unit. (Count)
system.cpu0.MemDepUnit__1.insertedStores            0                       # Number of stores inserted to the mem dependence unit. (Count)
system.cpu0.MemDepUnit__1.conflictingLoads            0                       # Number of conflicting loads. (Count)
system.cpu0.MemDepUnit__1.conflictingStores            0                       # Number of conflicting stores. (Count)
system.cpu0.MemDepUnit__2.insertedLoads             0                       # Number of loads inserted to the mem dependence unit. (Count)
system.cpu0.MemDepUnit__2.insertedStores            0                       # Number of stores inserted to the mem dependence unit. (Count)
system.cpu0.MemDepUnit__2.conflictingLoads            0                       # Number of conflicting loads. (Count)
system.cpu0.MemDepUnit__2.conflictingStores            0                       # Number of conflicting stores. (Count)
system.cpu0.MemDepUnit__3.insertedLoads             0                       # Number of loads inserted to the mem dependence unit. (Count)
system.cpu0.MemDepUnit__3.insertedStores            0                       # Number of stores inserted to the mem dependence unit. (Count)
system.cpu0.MemDepUnit__3.conflictingLoads            0                       # Number of conflicting loads. (Count)
system.cpu0.MemDepUnit__3.conflictingStores            0                       # Number of conflicting stores. (Count)
system.cpu0.branchPred.lookups_0::NoBranch            0      0.00%      0.00% # Number of BP lookups (Count)
system.cpu0.branchPred.lookups_0::Return         3717     10.87%     10.87% # Number of BP lookups (Count)
system.cpu0.branchPred.lookups_0::CallDirect         3114      9.10%     19.97% # Number of BP lookups (Count)
system.cpu0.branchPred.lookups_0::CallIndirect          785      2.29%     22.27% # Number of BP lookups (Count)
system.cpu0.branchPred.lookups_0::DirectCond        24498     71.62%     93.89% # Number of BP lookups (Count)
system.cpu0.branchPred.lookups_0::DirectUncond         1332      3.89%     97.78% # Number of BP lookups (Count)
system.cpu0.branchPred.lookups_0::IndirectCond            0      0.00%     97.78% # Number of BP lookups (Count)
system.cpu0.branchPred.lookups_0::IndirectUncond          759      2.22%    100.00% # Number of BP lookups (Count)
system.cpu0.branchPred.lookups_0::total         34205                       # Number of BP lookups (Count)
system.cpu0.branchPred.squashes_0::NoBranch            0      0.00%      0.00% # Number of branches that got squashed (completely removed) as an earlier branch was mispredicted. (Count)
system.cpu0.branchPred.squashes_0::Return         1239     10.99%     10.99% # Number of branches that got squashed (completely removed) as an earlier branch was mispredicted. (Count)
system.cpu0.branchPred.squashes_0::CallDirect         1161     10.30%     21.29% # Number of branches that got squashed (completely removed) as an earlier branch was mispredicted. (Count)
system.cpu0.branchPred.squashes_0::CallIndirect          255      2.26%     23.56% # Number of branches that got squashed (completely removed) as an earlier branch was mispredicted. (Count)
system.cpu0.branchPred.squashes_0::DirectCond         7697     68.29%     91.85% # Number of branches that got squashed (completely removed) as an earlier branch was mispredicted. (Count)
system.cpu0.branchPred.squashes_0::DirectUncond          531      4.71%     96.56% # Number of branches that got squashed (completely removed) as an earlier branch was mispredicted. (Count)
system.cpu0.branchPred.squashes_0::IndirectCond            0      0.00%     96.56% # Number of branches that got squashed (completely removed) as an earlier branch was mispredicted. (Count)
system.cpu0.branchPred.squashes_0::IndirectUncond          388      3.44%    100.00% # Number of branches that got squashed (completely removed) as an earlier branch was mispredicted. (Count)
system.cpu0.branchPred.squashes_0::total        11271                       # Number of branches that got squashed (completely removed) as an earlier branch was mispredicted. (Count)
system.cpu0.branchPred.corrected_0::NoBranch            0      0.00%      0.00% # Number of branches that got corrected but not yet commited. Branches get corrected by decode or after execute. Also a branch misprediction can be detected out-of-order. Therefore, a corrected branch might not end up beeing committed in case an even earlier branch was mispredicted (Count)
system.cpu0.branchPred.corrected_0::Return           14      0.54%      0.54% # Number of branches that got corrected but not yet commited. Branches get corrected by decode or after execute. Also a branch misprediction can be detected out-of-order. Therefore, a corrected branch might not end up beeing committed in case an even earlier branch was mispredicted (Count)
system.cpu0.branchPred.corrected_0::CallDirect          619     23.97%     24.52% # Number of branches that got corrected but not yet commited. Branches get corrected by decode or after execute. Also a branch misprediction can be detected out-of-order. Therefore, a corrected branch might not end up beeing committed in case an even earlier branch was mispredicted (Count)
system.cpu0.branchPred.corrected_0::CallIndirect          171      6.62%     31.14% # Number of branches that got corrected but not yet commited. Branches get corrected by decode or after execute. Also a branch misprediction can be detected out-of-order. Therefore, a corrected branch might not end up beeing committed in case an even earlier branch was mispredicted (Count)
system.cpu0.branchPred.corrected_0::DirectCond         1332     51.59%     82.73% # Number of branches that got corrected but not yet commited. Branches get corrected by decode or after execute. Also a branch misprediction can be detected out-of-order. Therefore, a corrected branch might not end up beeing committed in case an even earlier branch was mispredicted (Count)
system.cpu0.branchPred.corrected_0::DirectUncond          263     10.19%     92.91% # Number of branches that got corrected but not yet commited. Branches get corrected by decode or after execute. Also a branch misprediction can be detected out-of-order. Therefore, a corrected branch might not end up beeing committed in case an even earlier branch was mispredicted (Count)
system.cpu0.branchPred.corrected_0::IndirectCond            0      0.00%     92.91% # Number of branches that got corrected but not yet commited. Branches get corrected by decode or after execute. Also a branch misprediction can be detected out-of-order. Therefore, a corrected branch might not end up beeing committed in case an even earlier branch was mispredicted (Count)
system.cpu0.branchPred.corrected_0::IndirectUncond          183      7.09%    100.00% # Number of branches that got corrected but not yet commited. Branches get corrected by decode or after execute. Also a branch misprediction can be detected out-of-order. Therefore, a corrected branch might not end up beeing committed in case an even earlier branch was mispredicted (Count)
system.cpu0.branchPred.corrected_0::total         2582                       # Number of branches that got corrected but not yet commited. Branches get corrected by decode or after execute. Also a branch misprediction can be detected out-of-order. Therefore, a corrected branch might not end up beeing committed in case an even earlier branch was mispredicted (Count)
system.cpu0.branchPred.earlyResteers_0::NoBranch            0                       # Number of branches that got redirected after decode. (Count)
system.cpu0.branchPred.earlyResteers_0::Return            0                       # Number of branches that got redirected after decode. (Count)
system.cpu0.branchPred.earlyResteers_0::CallDirect            0                       # Number of branches that got redirected after decode. (Count)
system.cpu0.branchPred.earlyResteers_0::CallIndirect            0                       # Number of branches that got redirected after decode. (Count)
system.cpu0.branchPred.earlyResteers_0::DirectCond            0                       # Number of branches that got redirected after decode. (Count)
system.cpu0.branchPred.earlyResteers_0::DirectUncond            0                       # Number of branches that got redirected after decode. (Count)
system.cpu0.branchPred.earlyResteers_0::IndirectCond            0                       # Number of branches that got redirected after decode. (Count)
system.cpu0.branchPred.earlyResteers_0::IndirectUncond            0                       # Number of branches that got redirected after decode. (Count)
system.cpu0.branchPred.earlyResteers_0::total            0                       # Number of branches that got redirected after decode. (Count)
system.cpu0.branchPred.committed_0::NoBranch            0      0.00%      0.00% # Number of branches finally committed  (Count)
system.cpu0.branchPred.committed_0::Return         2478     10.81%     10.81% # Number of branches finally committed  (Count)
system.cpu0.branchPred.committed_0::CallDirect         1953      8.52%     19.32% # Number of branches finally committed  (Count)
system.cpu0.branchPred.committed_0::CallIndirect          530      2.31%     21.63% # Number of branches finally committed  (Count)
system.cpu0.branchPred.committed_0::DirectCond        16799     73.26%     94.89% # Number of branches finally committed  (Count)
system.cpu0.branchPred.committed_0::DirectUncond          800      3.49%     98.38% # Number of branches finally committed  (Count)
system.cpu0.branchPred.committed_0::IndirectCond            0      0.00%     98.38% # Number of branches finally committed  (Count)
system.cpu0.branchPred.committed_0::IndirectUncond          371      1.62%    100.00% # Number of branches finally committed  (Count)
system.cpu0.branchPred.committed_0::total        22931                       # Number of branches finally committed  (Count)
system.cpu0.branchPred.mispredicted_0::NoBranch            0      0.00%      0.00% # Number of committed branches that were mispredicted. (Count)
system.cpu0.branchPred.mispredicted_0::Return            0      0.00%      0.00% # Number of committed branches that were mispredicted. (Count)
system.cpu0.branchPred.mispredicted_0::CallDirect          418     20.97%     20.97% # Number of committed branches that were mispredicted. (Count)
system.cpu0.branchPred.mispredicted_0::CallIndirect          166      8.33%     29.30% # Number of committed branches that were mispredicted. (Count)
system.cpu0.branchPred.mispredicted_0::DirectCond         1093     54.84%     84.14% # Number of committed branches that were mispredicted. (Count)
system.cpu0.branchPred.mispredicted_0::DirectUncond          144      7.23%     91.37% # Number of committed branches that were mispredicted. (Count)
system.cpu0.branchPred.mispredicted_0::IndirectCond            0      0.00%     91.37% # Number of committed branches that were mispredicted. (Count)
system.cpu0.branchPred.mispredicted_0::IndirectUncond          172      8.63%    100.00% # Number of committed branches that were mispredicted. (Count)
system.cpu0.branchPred.mispredicted_0::total         1993                       # Number of committed branches that were mispredicted. (Count)
system.cpu0.branchPred.targetProvider_0::NoTarget        17238     50.40%     50.40% # The component providing the target for taken branches (Count)
system.cpu0.branchPred.targetProvider_0::BTB        12553     36.70%     87.10% # The component providing the target for taken branches (Count)
system.cpu0.branchPred.targetProvider_0::RAS         3717     10.87%     97.96% # The component providing the target for taken branches (Count)
system.cpu0.branchPred.targetProvider_0::Indirect          697      2.04%    100.00% # The component providing the target for taken branches (Count)
system.cpu0.branchPred.targetProvider_0::total        34205                       # The component providing the target for taken branches (Count)
system.cpu0.branchPred.targetWrong_0::NoBranch         2251     87.93%     87.93% # Number of branches where the target was incorrect or not available at prediction time. (Count)
system.cpu0.branchPred.targetWrong_0::Return          216      8.44%     96.37% # Number of branches where the target was incorrect or not available at prediction time. (Count)
system.cpu0.branchPred.targetWrong_0::CallDirect           14      0.55%     96.91% # Number of branches where the target was incorrect or not available at prediction time. (Count)
system.cpu0.branchPred.targetWrong_0::CallIndirect           79      3.09%    100.00% # Number of branches where the target was incorrect or not available at prediction time. (Count)
system.cpu0.branchPred.targetWrong_0::DirectCond            0      0.00%    100.00% # Number of branches where the target was incorrect or not available at prediction time. (Count)
system.cpu0.branchPred.targetWrong_0::DirectUncond            0      0.00%    100.00% # Number of branches where the target was incorrect or not available at prediction time. (Count)
system.cpu0.branchPred.targetWrong_0::IndirectCond            0      0.00%    100.00% # Number of branches where the target was incorrect or not available at prediction time. (Count)
system.cpu0.branchPred.targetWrong_0::IndirectUncond            0      0.00%    100.00% # Number of branches where the target was incorrect or not available at prediction time. (Count)
system.cpu0.branchPred.targetWrong_0::total         2560                       # Number of branches where the target was incorrect or not available at prediction time. (Count)
system.cpu0.branchPred.condPredicted            24498                       # Number of conditional branches predicted (Count)
system.cpu0.branchPred.condPredictedTaken        10386                       # Number of conditional branches predicted as taken (Count)
system.cpu0.branchPred.condIncorrect             2582                       # Number of conditional branches incorrect (Count)
system.cpu0.branchPred.predTakenBTBMiss          1046                       # Number of branches predicted taken but missed in BTB (Count)
system.cpu0.branchPred.NotTakenMispredicted         2391                       # Number branches predicted 'not taken' but turned out to be taken (Count)
system.cpu0.branchPred.TakenMispredicted          191                       # Number branches predicted taken but are actually not taken (Count)
system.cpu0.branchPred.BTBLookups               34205                       # Number of BTB lookups (Count)
system.cpu0.branchPred.BTBUpdates                2023                       # Number of BTB updates (Count)
system.cpu0.branchPred.BTBHits                  16451                       # Number of BTB hits (Count)
system.cpu0.branchPred.BTBHitRatio           0.480953                       # BTB Hit Ratio (Ratio)
system.cpu0.branchPred.BTBMispredicted           1489                       # Number BTB mispredictions. No target found or target wrong (Count)
system.cpu0.branchPred.indirectLookups           1544                       # Number of indirect predictor lookups. (Count)
system.cpu0.branchPred.indirectHits               697                       # Number of indirect target hits. (Count)
system.cpu0.branchPred.indirectMisses             847                       # Number of indirect misses. (Count)
system.cpu0.branchPred.indirectMispredicted            0                       # Number of mispredicted indirect branches. (Count)
system.cpu0.branchPred.btb.lookups::NoBranch            0      0.00%      0.00% # Number of BTB lookups (Count)
system.cpu0.branchPred.btb.lookups::Return         3717     10.87%     10.87% # Number of BTB lookups (Count)
system.cpu0.branchPred.btb.lookups::CallDirect         3114      9.10%     19.97% # Number of BTB lookups (Count)
system.cpu0.branchPred.btb.lookups::CallIndirect          785      2.29%     22.27% # Number of BTB lookups (Count)
system.cpu0.branchPred.btb.lookups::DirectCond        24498     71.62%     93.89% # Number of BTB lookups (Count)
system.cpu0.branchPred.btb.lookups::DirectUncond         1332      3.89%     97.78% # Number of BTB lookups (Count)
system.cpu0.branchPred.btb.lookups::IndirectCond            0      0.00%     97.78% # Number of BTB lookups (Count)
system.cpu0.branchPred.btb.lookups::IndirectUncond          759      2.22%    100.00% # Number of BTB lookups (Count)
system.cpu0.branchPred.btb.lookups::total        34205                       # Number of BTB lookups (Count)
system.cpu0.branchPred.btb.misses::NoBranch            0      0.00%      0.00% # Number of BTB misses (Count)
system.cpu0.branchPred.btb.misses::Return         3711     20.90%     20.90% # Number of BTB misses (Count)
system.cpu0.branchPred.btb.misses::CallDirect          927      5.22%     26.12% # Number of BTB misses (Count)
system.cpu0.branchPred.btb.misses::CallIndirect          785      4.42%     30.55% # Number of BTB misses (Count)
system.cpu0.branchPred.btb.misses::DirectCond        11208     63.13%     93.67% # Number of BTB misses (Count)
system.cpu0.branchPred.btb.misses::DirectUncond          364      2.05%     95.72% # Number of BTB misses (Count)
system.cpu0.branchPred.btb.misses::IndirectCond            0      0.00%     95.72% # Number of BTB misses (Count)
system.cpu0.branchPred.btb.misses::IndirectUncond          759      4.28%    100.00% # Number of BTB misses (Count)
system.cpu0.branchPred.btb.misses::total        17754                       # Number of BTB misses (Count)
system.cpu0.branchPred.btb.updates::NoBranch            0      0.00%      0.00% # Number of BTB updates (Count)
system.cpu0.branchPred.btb.updates::Return            0      0.00%      0.00% # Number of BTB updates (Count)
system.cpu0.branchPred.btb.updates::CallDirect          619     30.60%     30.60% # Number of BTB updates (Count)
system.cpu0.branchPred.btb.updates::CallIndirect            0      0.00%     30.60% # Number of BTB updates (Count)
system.cpu0.branchPred.btb.updates::DirectCond         1141     56.40%     87.00% # Number of BTB updates (Count)
system.cpu0.branchPred.btb.updates::DirectUncond          263     13.00%    100.00% # Number of BTB updates (Count)
system.cpu0.branchPred.btb.updates::IndirectCond            0      0.00%    100.00% # Number of BTB updates (Count)
system.cpu0.branchPred.btb.updates::IndirectUncond            0      0.00%    100.00% # Number of BTB updates (Count)
system.cpu0.branchPred.btb.updates::total         2023                       # Number of BTB updates (Count)
system.cpu0.branchPred.btb.mispredict::NoBranch            0      0.00%      0.00% # Number of BTB mispredictions. No target found or target wrong. (Count)
system.cpu0.branchPred.btb.mispredict::Return            0      0.00%      0.00% # Number of BTB mispredictions. No target found or target wrong. (Count)
system.cpu0.branchPred.btb.mispredict::CallDirect          619     30.60%     30.60% # Number of BTB mispredictions. No target found or target wrong. (Count)
system.cpu0.branchPred.btb.mispredict::CallIndirect            0      0.00%     30.60% # Number of BTB mispredictions. No target found or target wrong. (Count)
system.cpu0.branchPred.btb.mispredict::DirectCond         1141     56.40%     87.00% # Number of BTB mispredictions. No target found or target wrong. (Count)
system.cpu0.branchPred.btb.mispredict::DirectUncond          263     13.00%    100.00% # Number of BTB mispredictions. No target found or target wrong. (Count)
system.cpu0.branchPred.btb.mispredict::IndirectCond            0      0.00%    100.00% # Number of BTB mispredictions. No target found or target wrong. (Count)
system.cpu0.branchPred.btb.mispredict::IndirectUncond            0      0.00%    100.00% # Number of BTB mispredictions. No target found or target wrong. (Count)
system.cpu0.branchPred.btb.mispredict::total         2023                       # Number of BTB mispredictions. No target found or target wrong. (Count)
system.cpu0.branchPred.btb.power_state.pwrStateResidencyTicks::UNDEFINED    463199500                       # Cumulative time (in ticks) in various power states (Tick)
system.cpu0.branchPred.indirectBranchPred.lookups         1544                       # Number of lookups (Count)
system.cpu0.branchPred.indirectBranchPred.hits          697                       # Number of hits of a tag (Count)
system.cpu0.branchPred.indirectBranchPred.misses          847                       # Number of misses (Count)
system.cpu0.branchPred.indirectBranchPred.targetRecords          354                       # Number of targets that where recorded/installed in the cache (Count)
system.cpu0.branchPred.indirectBranchPred.indirectRecords         1898                       # Number of indirect branches/calls recorded in the indirect hist (Count)
system.cpu0.branchPred.indirectBranchPred.speculativeOverflows            0                       # Number of times more than the allowed capacity for speculative branches/calls where in flight and destroy the path history (Count)
system.cpu0.branchPred.ras.pushes                5138                       # Number of times a PC was pushed onto the RAS (Count)
system.cpu0.branchPred.ras.pops                  5133                       # Number of times a PC was poped from the RAS (Count)
system.cpu0.branchPred.ras.squashes              2655                       # Number of times the stack operation was squashed due to wrong speculation. (Count)
system.cpu0.branchPred.ras.used                  2478                       # Number of times the RAS is the provider (Count)
system.cpu0.branchPred.ras.correct               2478                       # Number of times the RAS is the provider and the prediction is correct (Count)
system.cpu0.branchPred.ras.incorrect                0                       # Number of times the RAS is the provider and the prediction is wrong (Count)
system.cpu0.commit.commitSquashedInsts          76718                       # The number of squashed insts skipped by commit (Count)
system.cpu0.commit.commitNonSpecStalls            969                       # The number of times commit has been forced to stall to communicate backwards (Count)
system.cpu0.commit.branchMispredicts             1769                       # The number of times a branch was mispredicted (Count)
system.cpu0.commit.numCommittedDist::samples       598832                       # Number of insts commited each cycle (Count)
system.cpu0.commit.numCommittedDist::mean     0.406425                       # Number of insts commited each cycle (Count)
system.cpu0.commit.numCommittedDist::stdev     1.467862                       # Number of insts commited each cycle (Count)
system.cpu0.commit.numCommittedDist::underflows            0      0.00%      0.00% # Number of insts commited each cycle (Count)
system.cpu0.commit.numCommittedDist::0         535423     89.41%     89.41% # Number of insts commited each cycle (Count)
system.cpu0.commit.numCommittedDist::1          16739      2.80%     92.21% # Number of insts commited each cycle (Count)
system.cpu0.commit.numCommittedDist::2           8811      1.47%     93.68% # Number of insts commited each cycle (Count)
system.cpu0.commit.numCommittedDist::3          12078      2.02%     95.69% # Number of insts commited each cycle (Count)
system.cpu0.commit.numCommittedDist::4           5173      0.86%     96.56% # Number of insts commited each cycle (Count)
system.cpu0.commit.numCommittedDist::5           2412      0.40%     96.96% # Number of insts commited each cycle (Count)
system.cpu0.commit.numCommittedDist::6           1948      0.33%     97.29% # Number of insts commited each cycle (Count)
system.cpu0.commit.numCommittedDist::7           1639      0.27%     97.56% # Number of insts commited each cycle (Count)
system.cpu0.commit.numCommittedDist::8          14609      2.44%    100.00% # Number of insts commited each cycle (Count)
system.cpu0.commit.numCommittedDist::overflows            0      0.00%    100.00% # Number of insts commited each cycle (Count)
system.cpu0.commit.numCommittedDist::min_value            0                       # Number of insts commited each cycle (Count)
system.cpu0.commit.numCommittedDist::max_value            8                       # Number of insts commited each cycle (Count)
system.cpu0.commit.numCommittedDist::total       598832                       # Number of insts commited each cycle (Count)
system.cpu0.commit.amos                             0                       # Number of atomic instructions committed (Count)
system.cpu0.commit.membars                        646                       # Number of memory barriers committed (Count)
system.cpu0.commit.functionCalls                 2483                       # Number of function calls committed. (Count)
system.cpu0.commit.committedInstType_0::No_OpClass         3123      1.28%      1.28% # Class of committed instruction (Count)
system.cpu0.commit.committedInstType_0::IntAlu       160738     66.04%     67.33% # Class of committed instruction (Count)
system.cpu0.commit.committedInstType_0::IntMult          193      0.08%     67.41% # Class of committed instruction (Count)
system.cpu0.commit.committedInstType_0::IntDiv           49      0.02%     67.43% # Class of committed instruction (Count)
system.cpu0.commit.committedInstType_0::FloatAdd         1076      0.44%     67.87% # Class of committed instruction (Count)
system.cpu0.commit.committedInstType_0::FloatCmp            0      0.00%     67.87% # Class of committed instruction (Count)
system.cpu0.commit.committedInstType_0::FloatCvt            0      0.00%     67.87% # Class of committed instruction (Count)
system.cpu0.commit.committedInstType_0::FloatMult            0      0.00%     67.87% # Class of committed instruction (Count)
system.cpu0.commit.committedInstType_0::FloatMultAcc            0      0.00%     67.87% # Class of committed instruction (Count)
system.cpu0.commit.committedInstType_0::FloatDiv            0      0.00%     67.87% # Class of committed instruction (Count)
system.cpu0.commit.committedInstType_0::FloatMisc            0      0.00%     67.87% # Class of committed instruction (Count)
system.cpu0.commit.committedInstType_0::FloatSqrt            0      0.00%     67.87% # Class of committed instruction (Count)
system.cpu0.commit.committedInstType_0::SimdAdd           32      0.01%     67.88% # Class of committed instruction (Count)
system.cpu0.commit.committedInstType_0::SimdAddAcc            0      0.00%     67.88% # Class of committed instruction (Count)
system.cpu0.commit.committedInstType_0::SimdAlu          816      0.34%     68.22% # Class of committed instruction (Count)
system.cpu0.commit.committedInstType_0::SimdCmp            0      0.00%     68.22% # Class of committed instruction (Count)
system.cpu0.commit.committedInstType_0::SimdCvt          314      0.13%     68.35% # Class of committed instruction (Count)
system.cpu0.commit.committedInstType_0::SimdMisc         1497      0.62%     68.96% # Class of committed instruction (Count)
system.cpu0.commit.committedInstType_0::SimdMult            0      0.00%     68.96% # Class of committed instruction (Count)
system.cpu0.commit.committedInstType_0::SimdMultAcc            0      0.00%     68.96% # Class of committed instruction (Count)
system.cpu0.commit.committedInstType_0::SimdMatMultAcc            0      0.00%     68.96% # Class of committed instruction (Count)
system.cpu0.commit.committedInstType_0::SimdShift            0      0.00%     68.96% # Class of committed instruction (Count)
system.cpu0.commit.committedInstType_0::SimdShiftAcc            0      0.00%     68.96% # Class of committed instruction (Count)
system.cpu0.commit.committedInstType_0::SimdDiv            0      0.00%     68.96% # Class of committed instruction (Count)
system.cpu0.commit.committedInstType_0::SimdSqrt            0      0.00%     68.96% # Class of committed instruction (Count)
system.cpu0.commit.committedInstType_0::SimdFloatAdd            0      0.00%     68.96% # Class of committed instruction (Count)
system.cpu0.commit.committedInstType_0::SimdFloatAlu            0      0.00%     68.96% # Class of committed instruction (Count)
system.cpu0.commit.committedInstType_0::SimdFloatCmp            0      0.00%     68.96% # Class of committed instruction (Count)
system.cpu0.commit.committedInstType_0::SimdFloatCvt           20      0.01%     68.97% # Class of committed instruction (Count)
system.cpu0.commit.committedInstType_0::SimdFloatDiv            8      0.00%     68.97% # Class of committed instruction (Count)
system.cpu0.commit.committedInstType_0::SimdFloatMisc            0      0.00%     68.97% # Class of committed instruction (Count)
system.cpu0.commit.committedInstType_0::SimdFloatMult            8      0.00%     68.98% # Class of committed instruction (Count)
system.cpu0.commit.committedInstType_0::SimdFloatMultAcc            0      0.00%     68.98% # Class of committed instruction (Count)
system.cpu0.commit.committedInstType_0::SimdFloatMatMultAcc            0      0.00%     68.98% # Class of committed instruction (Count)
system.cpu0.commit.committedInstType_0::SimdFloatSqrt            0      0.00%     68.98% # Class of committed instruction (Count)
system.cpu0.commit.committedInstType_0::SimdReduceAdd            0      0.00%     68.98% # Class of committed instruction (Count)
system.cpu0.commit.committedInstType_0::SimdReduceAlu            0      0.00%     68.98% # Class of committed instruction (Count)
system.cpu0.commit.committedInstType_0::SimdReduceCmp            0      0.00%     68.98% # Class of committed instruction (Count)
system.cpu0.commit.committedInstType_0::SimdFloatReduceAdd            0      0.00%     68.98% # Class of committed instruction (Count)
system.cpu0.commit.committedInstType_0::SimdFloatReduceCmp            0      0.00%     68.98% # Class of committed instruction (Count)
system.cpu0.commit.committedInstType_0::SimdAes            0      0.00%     68.98% # Class of committed instruction (Count)
system.cpu0.commit.committedInstType_0::SimdAesMix            0      0.00%     68.98% # Class of committed instruction (Count)
system.cpu0.commit.committedInstType_0::SimdSha1Hash            0      0.00%     68.98% # Class of committed instruction (Count)
system.cpu0.commit.committedInstType_0::SimdSha1Hash2            0      0.00%     68.98% # Class of committed instruction (Count)
system.cpu0.commit.committedInstType_0::SimdSha256Hash            0      0.00%     68.98% # Class of committed instruction (Count)
system.cpu0.commit.committedInstType_0::SimdSha256Hash2            0      0.00%     68.98% # Class of committed instruction (Count)
system.cpu0.commit.committedInstType_0::SimdShaSigma2            0      0.00%     68.98% # Class of committed instruction (Count)
system.cpu0.commit.committedInstType_0::SimdShaSigma3            0      0.00%     68.98% # Class of committed instruction (Count)
system.cpu0.commit.committedInstType_0::SimdPredAlu            0      0.00%     68.98% # Class of committed instruction (Count)
system.cpu0.commit.committedInstType_0::Matrix            0      0.00%     68.98% # Class of committed instruction (Count)
system.cpu0.commit.committedInstType_0::MatrixMov            0      0.00%     68.98% # Class of committed instruction (Count)
system.cpu0.commit.committedInstType_0::MatrixOP            0      0.00%     68.98% # Class of committed instruction (Count)
system.cpu0.commit.committedInstType_0::MemRead        57510     23.63%     92.61% # Class of committed instruction (Count)
system.cpu0.commit.committedInstType_0::MemWrite        16022      6.58%     99.19% # Class of committed instruction (Count)
system.cpu0.commit.committedInstType_0::FloatMemRead          705      0.29%     99.48% # Class of committed instruction (Count)
system.cpu0.commit.committedInstType_0::FloatMemWrite         1269      0.52%    100.00% # Class of committed instruction (Count)
system.cpu0.commit.committedInstType_0::IprAccess            0      0.00%    100.00% # Class of committed instruction (Count)
system.cpu0.commit.committedInstType_0::InstPrefetch            0      0.00%    100.00% # Class of committed instruction (Count)
system.cpu0.commit.committedInstType_0::SimdUnitStrideLoad            0      0.00%    100.00% # Class of committed instruction (Count)
system.cpu0.commit.committedInstType_0::SimdUnitStrideStore            0      0.00%    100.00% # Class of committed instruction (Count)
system.cpu0.commit.committedInstType_0::SimdUnitStrideMaskLoad            0      0.00%    100.00% # Class of committed instruction (Count)
system.cpu0.commit.committedInstType_0::SimdUnitStrideMaskStore            0      0.00%    100.00% # Class of committed instruction (Count)
system.cpu0.commit.committedInstType_0::SimdStridedLoad            0      0.00%    100.00% # Class of committed instruction (Count)
system.cpu0.commit.committedInstType_0::SimdStridedStore            0      0.00%    100.00% # Class of committed instruction (Count)
system.cpu0.commit.committedInstType_0::SimdIndexedLoad            0      0.00%    100.00% # Class of committed instruction (Count)
system.cpu0.commit.committedInstType_0::SimdIndexedStore            0      0.00%    100.00% # Class of committed instruction (Count)
system.cpu0.commit.committedInstType_0::SimdWholeRegisterLoad            0      0.00%    100.00% # Class of committed instruction (Count)
system.cpu0.commit.committedInstType_0::SimdWholeRegisterStore            0      0.00%    100.00% # Class of committed instruction (Count)
system.cpu0.commit.committedInstType_0::SimdUnitStrideFaultOnlyFirstLoad            0      0.00%    100.00% # Class of committed instruction (Count)
system.cpu0.commit.committedInstType_0::SimdUnitStrideSegmentedLoad            0      0.00%    100.00% # Class of committed instruction (Count)
system.cpu0.commit.committedInstType_0::SimdUnitStrideSegmentedStore            0      0.00%    100.00% # Class of committed instruction (Count)
system.cpu0.commit.committedInstType_0::SimdExt            0      0.00%    100.00% # Class of committed instruction (Count)
system.cpu0.commit.committedInstType_0::SimdFloatExt            0      0.00%    100.00% # Class of committed instruction (Count)
system.cpu0.commit.committedInstType_0::SimdConfig            0      0.00%    100.00% # Class of committed instruction (Count)
system.cpu0.commit.committedInstType_0::total       243380                       # Class of committed instruction (Count)
system.cpu0.commit.commitEligibleSamples        14609                       # number cycles where commit BW limit reached (Cycle)
system.cpu0.commitStats0.numInsts              140570                       # Number of instructions committed (thread level) (Count)
system.cpu0.commitStats0.numOps                243380                       # Number of ops (including micro ops) committed (thread level) (Count)
system.cpu0.commitStats0.numInstsNotNOP        140570                       # Number of instructions committed excluding NOPs or prefetches (Count)
system.cpu0.commitStats0.numOpsNotNOP          243380                       # Number of Ops (including micro ops) Simulated (Count)
system.cpu0.commitStats0.cpi                 6.540023                       # CPI: cycles per instruction (thread level) ((Cycle/Count))
system.cpu0.commitStats0.ipc                 0.152905                       # IPC: instructions per cycle (thread level) ((Count/Cycle))
system.cpu0.commitStats0.numMemRefs             75506                       # Number of memory references committed (Count)
system.cpu0.commitStats0.numFpInsts              6426                       # Number of float instructions (Count)
system.cpu0.commitStats0.numIntInsts           236073                       # Number of integer instructions (Count)
system.cpu0.commitStats0.numLoadInsts           58215                       # Number of load instructions (Count)
system.cpu0.commitStats0.numStoreInsts          17291                       # Number of store instructions (Count)
system.cpu0.commitStats0.numVecInsts                0                       # Number of vector instructions (Count)
system.cpu0.commitStats0.committedInstType::No_OpClass         3123      1.28%      1.28% # Class of committed instruction. (Count)
system.cpu0.commitStats0.committedInstType::IntAlu       160738     66.04%     67.33% # Class of committed instruction. (Count)
system.cpu0.commitStats0.committedInstType::IntMult          193      0.08%     67.41% # Class of committed instruction. (Count)
system.cpu0.commitStats0.committedInstType::IntDiv           49      0.02%     67.43% # Class of committed instruction. (Count)
system.cpu0.commitStats0.committedInstType::FloatAdd         1076      0.44%     67.87% # Class of committed instruction. (Count)
system.cpu0.commitStats0.committedInstType::FloatCmp            0      0.00%     67.87% # Class of committed instruction. (Count)
system.cpu0.commitStats0.committedInstType::FloatCvt            0      0.00%     67.87% # Class of committed instruction. (Count)
system.cpu0.commitStats0.committedInstType::FloatMult            0      0.00%     67.87% # Class of committed instruction. (Count)
system.cpu0.commitStats0.committedInstType::FloatMultAcc            0      0.00%     67.87% # Class of committed instruction. (Count)
system.cpu0.commitStats0.committedInstType::FloatDiv            0      0.00%     67.87% # Class of committed instruction. (Count)
system.cpu0.commitStats0.committedInstType::FloatMisc            0      0.00%     67.87% # Class of committed instruction. (Count)
system.cpu0.commitStats0.committedInstType::FloatSqrt            0      0.00%     67.87% # Class of committed instruction. (Count)
system.cpu0.commitStats0.committedInstType::SimdAdd           32      0.01%     67.88% # Class of committed instruction. (Count)
system.cpu0.commitStats0.committedInstType::SimdAddAcc            0      0.00%     67.88% # Class of committed instruction. (Count)
system.cpu0.commitStats0.committedInstType::SimdAlu          816      0.34%     68.22% # Class of committed instruction. (Count)
system.cpu0.commitStats0.committedInstType::SimdCmp            0      0.00%     68.22% # Class of committed instruction. (Count)
system.cpu0.commitStats0.committedInstType::SimdCvt          314      0.13%     68.35% # Class of committed instruction. (Count)
system.cpu0.commitStats0.committedInstType::SimdMisc         1497      0.62%     68.96% # Class of committed instruction. (Count)
system.cpu0.commitStats0.committedInstType::SimdMult            0      0.00%     68.96% # Class of committed instruction. (Count)
system.cpu0.commitStats0.committedInstType::SimdMultAcc            0      0.00%     68.96% # Class of committed instruction. (Count)
system.cpu0.commitStats0.committedInstType::SimdMatMultAcc            0      0.00%     68.96% # Class of committed instruction. (Count)
system.cpu0.commitStats0.committedInstType::SimdShift            0      0.00%     68.96% # Class of committed instruction. (Count)
system.cpu0.commitStats0.committedInstType::SimdShiftAcc            0      0.00%     68.96% # Class of committed instruction. (Count)
system.cpu0.commitStats0.committedInstType::SimdDiv            0      0.00%     68.96% # Class of committed instruction. (Count)
system.cpu0.commitStats0.committedInstType::SimdSqrt            0      0.00%     68.96% # Class of committed instruction. (Count)
system.cpu0.commitStats0.committedInstType::SimdFloatAdd            0      0.00%     68.96% # Class of committed instruction. (Count)
system.cpu0.commitStats0.committedInstType::SimdFloatAlu            0      0.00%     68.96% # Class of committed instruction. (Count)
system.cpu0.commitStats0.committedInstType::SimdFloatCmp            0      0.00%     68.96% # Class of committed instruction. (Count)
system.cpu0.commitStats0.committedInstType::SimdFloatCvt           20      0.01%     68.97% # Class of committed instruction. (Count)
system.cpu0.commitStats0.committedInstType::SimdFloatDiv            8      0.00%     68.97% # Class of committed instruction. (Count)
system.cpu0.commitStats0.committedInstType::SimdFloatMisc            0      0.00%     68.97% # Class of committed instruction. (Count)
system.cpu0.commitStats0.committedInstType::SimdFloatMult            8      0.00%     68.98% # Class of committed instruction. (Count)
system.cpu0.commitStats0.committedInstType::SimdFloatMultAcc            0      0.00%     68.98% # Class of committed instruction. (Count)
system.cpu0.commitStats0.committedInstType::SimdFloatMatMultAcc            0      0.00%     68.98% # Class of committed instruction. (Count)
system.cpu0.commitStats0.committedInstType::SimdFloatSqrt            0      0.00%     68.98% # Class of committed instruction. (Count)
system.cpu0.commitStats0.committedInstType::SimdReduceAdd            0      0.00%     68.98% # Class of committed instruction. (Count)
system.cpu0.commitStats0.committedInstType::SimdReduceAlu            0      0.00%     68.98% # Class of committed instruction. (Count)
system.cpu0.commitStats0.committedInstType::SimdReduceCmp            0      0.00%     68.98% # Class of committed instruction. (Count)
system.cpu0.commitStats0.committedInstType::SimdFloatReduceAdd            0      0.00%     68.98% # Class of committed instruction. (Count)
system.cpu0.commitStats0.committedInstType::SimdFloatReduceCmp            0      0.00%     68.98% # Class of committed instruction. (Count)
system.cpu0.commitStats0.committedInstType::SimdAes            0      0.00%     68.98% # Class of committed instruction. (Count)
system.cpu0.commitStats0.committedInstType::SimdAesMix            0      0.00%     68.98% # Class of committed instruction. (Count)
system.cpu0.commitStats0.committedInstType::SimdSha1Hash            0      0.00%     68.98% # Class of committed instruction. (Count)
system.cpu0.commitStats0.committedInstType::SimdSha1Hash2            0      0.00%     68.98% # Class of committed instruction. (Count)
system.cpu0.commitStats0.committedInstType::SimdSha256Hash            0      0.00%     68.98% # Class of committed instruction. (Count)
system.cpu0.commitStats0.committedInstType::SimdSha256Hash2            0      0.00%     68.98% # Class of committed instruction. (Count)
system.cpu0.commitStats0.committedInstType::SimdShaSigma2            0      0.00%     68.98% # Class of committed instruction. (Count)
system.cpu0.commitStats0.committedInstType::SimdShaSigma3            0      0.00%     68.98% # Class of committed instruction. (Count)
system.cpu0.commitStats0.committedInstType::SimdPredAlu            0      0.00%     68.98% # Class of committed instruction. (Count)
system.cpu0.commitStats0.committedInstType::Matrix            0      0.00%     68.98% # Class of committed instruction. (Count)
system.cpu0.commitStats0.committedInstType::MatrixMov            0      0.00%     68.98% # Class of committed instruction. (Count)
system.cpu0.commitStats0.committedInstType::MatrixOP            0      0.00%     68.98% # Class of committed instruction. (Count)
system.cpu0.commitStats0.committedInstType::MemRead        57510     23.63%     92.61% # Class of committed instruction. (Count)
system.cpu0.commitStats0.committedInstType::MemWrite        16022      6.58%     99.19% # Class of committed instruction. (Count)
system.cpu0.commitStats0.committedInstType::FloatMemRead          705      0.29%     99.48% # Class of committed instruction. (Count)
system.cpu0.commitStats0.committedInstType::FloatMemWrite         1269      0.52%    100.00% # Class of committed instruction. (Count)
system.cpu0.commitStats0.committedInstType::IprAccess            0      0.00%    100.00% # Class of committed instruction. (Count)
system.cpu0.commitStats0.committedInstType::InstPrefetch            0      0.00%    100.00% # Class of committed instruction. (Count)
system.cpu0.commitStats0.committedInstType::SimdUnitStrideLoad            0      0.00%    100.00% # Class of committed instruction. (Count)
system.cpu0.commitStats0.committedInstType::SimdUnitStrideStore            0      0.00%    100.00% # Class of committed instruction. (Count)
system.cpu0.commitStats0.committedInstType::SimdUnitStrideMaskLoad            0      0.00%    100.00% # Class of committed instruction. (Count)
system.cpu0.commitStats0.committedInstType::SimdUnitStrideMaskStore            0      0.00%    100.00% # Class of committed instruction. (Count)
system.cpu0.commitStats0.committedInstType::SimdStridedLoad            0      0.00%    100.00% # Class of committed instruction. (Count)
system.cpu0.commitStats0.committedInstType::SimdStridedStore            0      0.00%    100.00% # Class of committed instruction. (Count)
system.cpu0.commitStats0.committedInstType::SimdIndexedLoad            0      0.00%    100.00% # Class of committed instruction. (Count)
system.cpu0.commitStats0.committedInstType::SimdIndexedStore            0      0.00%    100.00% # Class of committed instruction. (Count)
system.cpu0.commitStats0.committedInstType::SimdWholeRegisterLoad            0      0.00%    100.00% # Class of committed instruction. (Count)
system.cpu0.commitStats0.committedInstType::SimdWholeRegisterStore            0      0.00%    100.00% # Class of committed instruction. (Count)
system.cpu0.commitStats0.committedInstType::SimdUnitStrideFaultOnlyFirstLoad            0      0.00%    100.00% # Class of committed instruction. (Count)
system.cpu0.commitStats0.committedInstType::SimdUnitStrideSegmentedLoad            0      0.00%    100.00% # Class of committed instruction. (Count)
system.cpu0.commitStats0.committedInstType::SimdUnitStrideSegmentedStore            0      0.00%    100.00% # Class of committed instruction. (Count)
system.cpu0.commitStats0.committedInstType::SimdExt            0      0.00%    100.00% # Class of committed instruction. (Count)
system.cpu0.commitStats0.committedInstType::SimdFloatExt            0      0.00%    100.00% # Class of committed instruction. (Count)
system.cpu0.commitStats0.committedInstType::SimdConfig            0      0.00%    100.00% # Class of committed instruction. (Count)
system.cpu0.commitStats0.committedInstType::total       243380                       # Class of committed instruction. (Count)
system.cpu0.commitStats0.committedControl::IsControl        22931                       # Class of control type instructions committed (Count)
system.cpu0.commitStats0.committedControl::IsDirectControl        19552                       # Class of control type instructions committed (Count)
system.cpu0.commitStats0.committedControl::IsIndirectControl         3379                       # Class of control type instructions committed (Count)
system.cpu0.commitStats0.committedControl::IsCondControl        16799                       # Class of control type instructions committed (Count)
system.cpu0.commitStats0.committedControl::IsUncondControl         6132                       # Class of control type instructions committed (Count)
system.cpu0.commitStats0.committedControl::IsCall         2483                       # Class of control type instructions committed (Count)
system.cpu0.commitStats0.committedControl::IsReturn         2478                       # Class of control type instructions committed (Count)
system.cpu0.decode.idleCycles                   92523                       # Number of cycles decode is idle (Cycle)
system.cpu0.decode.blockedCycles               461565                       # Number of cycles decode is blocked (Cycle)
system.cpu0.decode.runCycles                    45578                       # Number of cycles decode is running (Cycle)
system.cpu0.decode.unblockCycles                 8116                       # Number of cycles decode is unblocking (Cycle)
system.cpu0.decode.squashCycles                  2449                       # Number of cycles decode is squashing (Cycle)
system.cpu0.decode.branchResolved               12550                       # Number of times decode resolved a branch (Count)
system.cpu0.decode.branchMispred                  912                       # Number of times decode detected a branch misprediction (Count)
system.cpu0.decode.decodedInsts                343095                       # Number of instructions handled by decode (Count)
system.cpu0.decode.squashedInsts                 4485                       # Number of squashed instructions handled by decode (Count)
system.cpu0.executeStats0.numInsts             521027                       # Number of executed instructions (Count)
system.cpu0.executeStats0.numNop                    0                       # Number of nop insts executed (Count)
system.cpu0.executeStats0.numBranches           27046                       # Number of branches executed (Count)
system.cpu0.executeStats0.numLoadInsts         298336                       # Number of load instructions executed (Count)
system.cpu0.executeStats0.numStoreInsts         19499                       # Number of stores executed (Count)
system.cpu0.executeStats0.instRate           0.566746                       # Inst execution rate ((Count/Cycle))
system.cpu0.executeStats0.numCCRegReads        114516                       # Number of times the CC registers were read (Count)
system.cpu0.executeStats0.numCCRegWrites        74705                       # Number of times the CC registers were written (Count)
system.cpu0.executeStats0.numFpRegReads          7681                       # Number of times the floating registers were read (Count)
system.cpu0.executeStats0.numFpRegWrites         5247                       # Number of times the floating registers were written (Count)
system.cpu0.executeStats0.numIntRegReads       534159                       # Number of times the integer registers were read (Count)
system.cpu0.executeStats0.numIntRegWrites       209824                       # Number of times the integer registers were written (Count)
system.cpu0.executeStats0.numMemRefs           317835                       # Number of memory refs (Count)
system.cpu0.executeStats0.numMiscRegReads       373097                       # Number of times the Misc registers were read (Count)
system.cpu0.executeStats0.numVecAluAccesses            0                       # Number of vector alu accesses (Count)
system.cpu0.executeStats0.numDiscardedOps            0                       # Number of ops (including micro ops) which were discarded before commit (Count)
system.cpu0.fetch.predictedBranches             16967                       # Number of branches that fetch has predicted taken (Count)
system.cpu0.fetch.cycles                       458065                       # Number of cycles fetch has run and was not squashing or blocked (Cycle)
system.cpu0.fetch.squashCycles                   6684                       # Number of cycles fetch has spent squashing (Cycle)
system.cpu0.fetch.miscStallCycles                 199                       # Number of cycles fetch has spent waiting on interrupts, or bad addresses, or out of MSHRs (Cycle)
[...]
system.ruby.network.int_links2.dst_cred_bridge.power_state.pwrStateResidencyTicks::UNDEFINED    463199500                       # Cumulative time (in ticks) in various power states (Tick)
system.ruby.network.int_links2.dst_net_bridge.power_state.pwrStateResidencyTicks::UNDEFINED    463199500                       # Cumulative time (in ticks) in various power states (Tick)
system.ruby.network.int_links2.network_link.power_state.pwrStateResidencyTicks::UNDEFINED    463199500                       # Cumulative time (in ticks) in various power states (Tick)
system.ruby.network.int_links2.src_cred_bridge.power_state.pwrStateResidencyTicks::UNDEFINED    463199500                       # Cumulative time (in ticks) in various power states (Tick)
system.ruby.network.int_links2.src_net_bridge.power_state.pwrStateResidencyTicks::UNDEFINED    463199500                       # Cumulative time (in ticks) in various power states (Tick)
system.ruby.network.int_links3.credit_link.power_state.pwrStateResidencyTicks::UNDEFINED    463199500                       # Cumulative time (in ticks) in various power states (Tick)
system.ruby.network.int_links3.dst_cred_bridge.power_state.pwrStateResidencyTicks::UNDEFINED    463199500                       # Cumulative time (in ticks) in various power states (Tick)
system.ruby.network.int_links3.dst_net_bridge.power_state.pwrStateResidencyTicks::UNDEFINED    463199500                       # Cumulative time (in ticks) in various power states (Tick)
system.ruby.network.int_links3.network_link.power_state.pwrStateResidencyTicks::UNDEFINED    463199500                       # Cumulative time (in ticks) in various power states (Tick)
system.ruby.network.int_links3.src_cred_bridge.power_state.pwrStateResidencyTicks::UNDEFINED    463199500                       # Cumulative time (in ticks) in various power states (Tick)
system.ruby.network.int_links3.src_net_bridge.power_state.pwrStateResidencyTicks::UNDEFINED    463199500                       # Cumulative time (in ticks) in various power states (Tick)
system.ruby.network.int_links4.credit_link.power_state.pwrStateResidencyTicks::UNDEFINED    463199500                       # Cumulative time (in ticks) in various power states (Tick)
system.ruby.network.int_links4.dst_cred_bridge.power_state.pwrStateResidencyTicks::UNDEFINED    463199500                       # Cumulative time (in ticks) in various power states (Tick)
system.ruby.network.int_links4.dst_net_bridge.power_state.pwrStateResidencyTicks::UNDEFINED    463199500                       # Cumulative time (in ticks) in various power states (Tick)
system.ruby.network.int_links4.network_link.power_state.pwrStateResidencyTicks::UNDEFINED    463199500                       # Cumulative time (in ticks) in various power states (Tick)
system.ruby.network.int_links4.src_cred_bridge.power_state.pwrStateResidencyTicks::UNDEFINED    463199500                       # Cumulative time (in ticks) in various power states (Tick)
system.ruby.network.int_links4.src_net_bridge.power_state.pwrStateResidencyTicks::UNDEFINED    463199500                       # Cumulative time (in ticks) in various power states (Tick)
system.ruby.network.int_links5.credit_link.power_state.pwrStateResidencyTicks::UNDEFINED    463199500                       # Cumulative time (in ticks) in various power states (Tick)
system.ruby.network.int_links5.dst_cred_bridge.power_state.pwrStateResidencyTicks::UNDEFINED    463199500                       # Cumulative time (in ticks) in various power states (Tick)
system.ruby.network.int_links5.dst_net_bridge.power_state.pwrStateResidencyTicks::UNDEFINED    463199500                       # Cumulative time (in ticks) in various power states (Tick)
system.ruby.network.int_links5.network_link.power_state.pwrStateResidencyTicks::UNDEFINED    463199500                       # Cumulative time (in ticks) in various power states (Tick)
system.ruby.network.int_links5.src_cred_bridge.power_state.pwrStateResidencyTicks::UNDEFINED    463199500                       # Cumulative time (in ticks) in various power states (Tick)
system.ruby.network.int_links5.src_net_bridge.power_state.pwrStateResidencyTicks::UNDEFINED    463199500                       # Cumulative time (in ticks) in various power states (Tick)
system.ruby.network.int_links6.credit_link.power_state.pwrStateResidencyTicks::UNDEFINED    463199500                       # Cumulative time (in ticks) in various power states (Tick)
system.ruby.network.int_links6.dst_cred_bridge.power_state.pwrStateResidencyTicks::UNDEFINED    463199500                       # Cumulative time (in ticks) in various power states (Tick)
system.ruby.network.int_links6.dst_net_bridge.power_state.pwrStateResidencyTicks::UNDEFINED    463199500                       # Cumulative time (in ticks) in various power states (Tick)
system.ruby.network.int_links6.network_link.power_state.pwrStateResidencyTicks::UNDEFINED    463199500                       # Cumulative time (in ticks) in various power states (Tick)
system.ruby.network.int_links6.src_cred_bridge.power_state.pwrStateResidencyTicks::UNDEFINED    463199500                       # Cumulative time (in ticks) in various power states (Tick)
system.ruby.network.int_links6.src_net_bridge.power_state.pwrStateResidencyTicks::UNDEFINED    463199500                       # Cumulative time (in ticks) in various power states (Tick)
system.ruby.network.int_links7.credit_link.power_state.pwrStateResidencyTicks::UNDEFINED    463199500                       # Cumulative time (in ticks) in various power states (Tick)
system.ruby.network.int_links7.dst_cred_bridge.power_state.pwrStateResidencyTicks::UNDEFINED    463199500                       # Cumulative time (in ticks) in various power states (Tick)
system.ruby.network.int_links7.dst_net_bridge.power_state.pwrStateResidencyTicks::UNDEFINED    463199500                       # Cumulative time (in ticks) in various power states (Tick)
system.ruby.network.int_links7.network_link.power_state.pwrStateResidencyTicks::UNDEFINED    463199500                       # Cumulative time (in ticks) in various power states (Tick)
system.ruby.network.int_links7.src_cred_bridge.power_state.pwrStateResidencyTicks::UNDEFINED    463199500                       # Cumulative time (in ticks) in various power states (Tick)
system.ruby.network.int_links7.src_net_bridge.power_state.pwrStateResidencyTicks::UNDEFINED    463199500                       # Cumulative time (in ticks) in various power states (Tick)
system.ruby.network.netifs0.power_state.pwrStateResidencyTicks::UNDEFINED    463199500                       # Cumulative time (in ticks) in various power states (Tick)
system.ruby.network.netifs1.power_state.pwrStateResidencyTicks::UNDEFINED    463199500                       # Cumulative time (in ticks) in various power states (Tick)
system.ruby.network.netifs10.power_state.pwrStateResidencyTicks::UNDEFINED    463199500                       # Cumulative time (in ticks) in various power states (Tick)
system.ruby.network.netifs11.power_state.pwrStateResidencyTicks::UNDEFINED    463199500                       # Cumulative time (in ticks) in various power states (Tick)
system.ruby.network.netifs12.power_state.pwrStateResidencyTicks::UNDEFINED    463199500                       # Cumulative time (in ticks) in various power states (Tick)
system.ruby.network.netifs13.power_state.pwrStateResidencyTicks::UNDEFINED    463199500                       # Cumulative time (in ticks) in various power states (Tick)
system.ruby.network.netifs14.power_state.pwrStateResidencyTicks::UNDEFINED    463199500                       # Cumulative time (in ticks) in various power states (Tick)
system.ruby.network.netifs15.power_state.pwrStateResidencyTicks::UNDEFINED    463199500                       # Cumulative time (in ticks) in various power states (Tick)
system.ruby.network.netifs2.power_state.pwrStateResidencyTicks::UNDEFINED    463199500                       # Cumulative time (in ticks) in various power states (Tick)
system.ruby.network.netifs3.power_state.pwrStateResidencyTicks::UNDEFINED    463199500                       # Cumulative time (in ticks) in various power states (Tick)
system.ruby.network.netifs4.power_state.pwrStateResidencyTicks::UNDEFINED    463199500                       # Cumulative time (in ticks) in various power states (Tick)
system.ruby.network.netifs5.power_state.pwrStateResidencyTicks::UNDEFINED    463199500                       # Cumulative time (in ticks) in various power states (Tick)
system.ruby.network.netifs6.power_state.pwrStateResidencyTicks::UNDEFINED    463199500                       # Cumulative time (in ticks) in various power states (Tick)
system.ruby.network.netifs7.power_state.pwrStateResidencyTicks::UNDEFINED    463199500                       # Cumulative time (in ticks) in various power states (Tick)
system.ruby.network.netifs8.power_state.pwrStateResidencyTicks::UNDEFINED    463199500                       # Cumulative time (in ticks) in various power states (Tick)
system.ruby.network.netifs9.power_state.pwrStateResidencyTicks::UNDEFINED    463199500                       # Cumulative time (in ticks) in various power states (Tick)
system.ruby.network.power_state.pwrStateResidencyTicks::UNDEFINED    463199500                       # Cumulative time (in ticks) in various power states (Tick)
system.ruby.network.routers0.power_state.pwrStateResidencyTicks::UNDEFINED    463199500                       # Cumulative time (in ticks) in various power states (Tick)
system.ruby.network.routers1.power_state.pwrStateResidencyTicks::UNDEFINED    463199500                       # Cumulative time (in ticks) in various power states (Tick)
system.ruby.network.routers2.power_state.pwrStateResidencyTicks::UNDEFINED    463199500                       # Cumulative time (in ticks) in various power states (Tick)
system.ruby.network.routers3.power_state.pwrStateResidencyTicks::UNDEFINED    463199500                       # Cumulative time (in ticks) in various power states (Tick)
system.ruby.power_state.pwrStateResidencyTicks::UNDEFINED    463199500                       # Cumulative time (in ticks) in various power states (Tick)
system.sys_port_proxy.power_state.pwrStateResidencyTicks::UNDEFINED    463199500                       # Cumulative time (in ticks) in various power states (Tick)
system.voltage_domain.voltage                       1                       # Voltage in Volts (Volt)
system.workload.inst.arm                            0                       # number of arm instructions executed (Count)
system.workload.inst.quiesce                        0                       # number of quiesce instructions executed (Count)
system.ruby.network.average_flit_latency 11562.002472                       (Unspecified)
system.ruby.network.average_flit_network_latency  5659.810924                       (Unspecified)
system.ruby.network.average_flit_queueing_latency  5902.191548                       (Unspecified)
system.ruby.network.average_flit_vnet_latency | 3292.650073                       | 6422.150544                       | 3054.521323                       (Unspecified)
system.ruby.network.average_flit_vqueue_latency | 7104.848125                       | 5796.494702                       | 4102.577626                       (Unspecified)
system.ruby.network.average_hops             0.993770                       (Unspecified)
system.ruby.network.average_packet_latency 11571.884344                       (Unspecified)
system.ruby.network.average_packet_network_latency  5190.837410                       (Unspecified)
system.ruby.network.average_packet_queueing_latency  6381.046934                       (Unspecified)
system.ruby.network.average_packet_vnet_latency | 3284.039102                       | 7169.988232                       | 3054.521323                       (Unspecified)
system.ruby.network.average_packet_vqueue_latency | 7107.364171                       | 6522.264865                       | 4102.577626                       (Unspecified)
system.ruby.network.avg_link_utilization     6.736488                       (Unspecified)
system.ruby.network.avg_vc_load          |    0.583204      8.66%      8.66% |    0.316567      4.70%     13.36% |    0.139220      2.07%     15.42% |    0.105201      1.56%     16.98% |    2.207161     32.76%     49.75% |    1.336077     19.83%     69.58% |    0.905089     13.44%     83.02% |    0.680382     10.10%     93.12% |    0.309138      4.59%     97.71% |    0.075212      1.12%     98.82% |    0.040553      0.60%     99.43% |    0.038685      0.57%    100.00% (Unspecified)
system.ruby.network.avg_vc_load::total       6.736488                       (Unspecified)
system.ruby.network.ctrl_traffic_distribution.n0.n0        32066                       (Unspecified)
system.ruby.network.ctrl_traffic_distribution.n0.n1        31951                       (Unspecified)
system.ruby.network.ctrl_traffic_distribution.n0.n2        31026                       (Unspecified)
system.ruby.network.ctrl_traffic_distribution.n0.n3        31264                       (Unspecified)
system.ruby.network.ctrl_traffic_distribution.n1.n0        31238                       (Unspecified)
system.ruby.network.ctrl_traffic_distribution.n1.n1        31255                       (Unspecified)
system.ruby.network.ctrl_traffic_distribution.n1.n2        30292                       (Unspecified)
system.ruby.network.ctrl_traffic_distribution.n1.n3        30476                       (Unspecified)
system.ruby.network.ctrl_traffic_distribution.n2.n0        31116                       (Unspecified)
system.ruby.network.ctrl_traffic_distribution.n2.n1        31097                       (Unspecified)
system.ruby.network.ctrl_traffic_distribution.n2.n2        30753                       (Unspecified)
system.ruby.network.ctrl_traffic_distribution.n2.n3        30920                       (Unspecified)
system.ruby.network.ctrl_traffic_distribution.n3.n0        30823                       (Unspecified)
system.ruby.network.ctrl_traffic_distribution.n3.n1        30736                       (Unspecified)
system.ruby.network.ctrl_traffic_distribution.n3.n2        30406                       (Unspecified)
system.ruby.network.ctrl_traffic_distribution.n3.n3        30661                       (Unspecified)
system.ruby.network.data_traffic_distribution.n0.n0        32311                       (Unspecified)
system.ruby.network.data_traffic_distribution.n0.n1        31426                       (Unspecified)
system.ruby.network.data_traffic_distribution.n0.n2        31010                       (Unspecified)
system.ruby.network.data_traffic_distribution.n0.n3        30096                       (Unspecified)
system.ruby.network.data_traffic_distribution.n1.n0        31559                       (Unspecified)
system.ruby.network.data_traffic_distribution.n1.n1        32037                       (Unspecified)
system.ruby.network.data_traffic_distribution.n1.n2        30414                       (Unspecified)
system.ruby.network.data_traffic_distribution.n1.n3        30645                       (Unspecified)
system.ruby.network.data_traffic_distribution.n2.n0        30356                       (Unspecified)
system.ruby.network.data_traffic_distribution.n2.n1        29584                       (Unspecified)
system.ruby.network.data_traffic_distribution.n2.n2        31516                       (Unspecified)
system.ruby.network.data_traffic_distribution.n2.n3        30648                       (Unspecified)
system.ruby.network.data_traffic_distribution.n3.n0        29973                       (Unspecified)
system.ruby.network.data_traffic_distribution.n3.n1        30379                       (Unspecified)
system.ruby.network.data_traffic_distribution.n3.n2        31142                       (Unspecified)
system.ruby.network.data_traffic_distribution.n3.n3        31450                       (Unspecified)
system.ruby.network.ext_in_link_utilization      2084554                       (Unspecified)
system.ruby.network.ext_out_link_utilization      2084554                       (Unspecified)
system.ruby.network.flit_network_latency |  1164758500                       | 10196153000                       |   437270000                       (Unspecified)
system.ruby.network.flit_queueing_latency |  2513304500                       |  9202828000                       |   587304500                       (Unspecified)
system.ruby.network.flits_injected       |      353745     16.97%     16.97% |     1587654     76.16%     93.13% |      143155      6.87%    100.00% (Unspecified)
system.ruby.network.flits_injected::total      2084554                       (Unspecified)
system.ruby.network.flits_received       |      353745     16.97%     16.97% |     1587654     76.16%     93.13% |      143155      6.87%    100.00% (Unspecified)
system.ruby.network.flits_received::total      2084554                       (Unspecified)
system.ruby.network.int_link_utilization      2071568                       (Unspecified)
system.ruby.network.packet_network_latency |  1159019500                       |  3545889000                       |   437270000                       (Unspecified)
system.ruby.network.packet_queueing_latency |  2508366500                       |  3225560000                       |   587304500                       (Unspecified)
system.ruby.network.packets_injected     |      352925     35.63%     35.63% |      494546     49.92%     85.55% |      143155     14.45%    100.00% (Unspecified)
system.ruby.network.packets_injected::total       990626                       (Unspecified)
system.ruby.network.packets_received     |      352925     35.63%     35.63% |      494546     49.92%     85.55% |      143155     14.45%    100.00% (Unspecified)
system.ruby.network.packets_received::total       990626                       (Unspecified)
system.ruby.network.routers0.buffer_reads      1051441                       (Unspecified)
system.ruby.network.routers0.buffer_writes      1051441                       (Unspecified)
system.ruby.network.routers0.crossbar_activity      1051441                       (Unspecified)
system.ruby.network.routers0.sw_input_arbiter_activity      1328073                       (Unspecified)
system.ruby.network.routers0.sw_output_arbiter_activity      1051441                       (Unspecified)
system.ruby.network.routers1.buffer_reads      1042273                       (Unspecified)
system.ruby.network.routers1.buffer_writes      1042273                       (Unspecified)
system.ruby.network.routers1.crossbar_activity      1042273                       (Unspecified)
system.ruby.network.routers1.sw_input_arbiter_activity      1319763                       (Unspecified)
system.ruby.network.routers1.sw_output_arbiter_activity      1042273                       (Unspecified)
system.ruby.network.routers2.buffer_reads      1031828                       (Unspecified)
system.ruby.network.routers2.buffer_writes      1031828                       (Unspecified)
system.ruby.network.routers2.crossbar_activity      1031828                       (Unspecified)
system.ruby.network.routers2.sw_input_arbiter_activity      1295874                       (Unspecified)
system.ruby.network.routers2.sw_output_arbiter_activity      1031828                       (Unspecified)
system.ruby.network.routers3.buffer_reads      1030580                       (Unspecified)
system.ruby.network.routers3.buffer_writes      1030580                       (Unspecified)
system.ruby.network.routers3.crossbar_activity      1030580                       (Unspecified)
system.ruby.network.routers3.sw_input_arbiter_activity      1298795                       (Unspecified)
system.ruby.network.routers3.sw_output_arbiter_activity      1030580                       (Unspecified)

---------- End Simulation Statistics   ----------
